/*--------------------------------*- C++ -*----------------------------------*\
| =========                 |                                                 |
| \\      /  F ield         | OpenFOAM: The Open Source CFD Toolbox           |
|  \\    /   O peration     | Version:  4.1                                   |
|   \\  /    A nd           | Web:      www.OpenFOAM.org                      |
|    \\/     M anipulation  |                                                 |
\*---------------------------------------------------------------------------*/
FoamFile
{
    version     2.0;
    format      ascii;
    class       featureEdgeMesh;
    location    "constant/triSurface";
    object      InletN.eMesh;
}
// * * * * * * * * * * * * * * * * * * * * * * * * * * * * * * * * * * * * * //


// points:

96
(
(0 -0.0717733725905418 0.0102426698431373)
(0 -0.0711069330573082 0.0141440499573946)
(0 -0.0402788408100605 0.0602815486490726)
(0 -0.0348709709942341 0.0635640174150467)
(0 -0.0313586816191673 0.0653678998351097)
(0 0.0402788408100605 0.0602815486490726)
(0 0.0453809499740601 0.0565414801239967)
(0 0.0483916215598583 0.0539868511259556)
(0 -0.0277445502579212 0.0669812709093094)
(0 -0.0512652397155762 -0.0512652397155762)
(0 -0.0555396713316441 -0.0466016605496407)
(0 -0.0579941011965275 -0.0435087718069553)
(0 -0.0696040466427803 0.0202890504151583)
(0 -0.0683960169553757 0.0240481495857239)
(0 0.0512652397155762 0.0512652397155762)
(0 0.0555396713316441 0.0466016605496407)
(0 0.0579941011965275 0.0435087718069553)
(0 -0.0602815486490726 -0.0402788408100605)
(0 0.0602815486490726 0.0402788408100605)
(0 0.0102426698431373 0.0717733725905418)
(0 0.0141440499573946 0.0711069330573082)
(0 0.0669812709093094 -0.0277445502579212)
(0 0.0643084272742271 -0.0334782786667347)
(0 0.062390249222517 -0.0369294695556164)
(0 0.0602815486490726 -0.0402788408100605)
(0 -0.0669812709093094 0.0277445502579212)
(0 -0.0402788408100605 -0.0602815486490726)
(0 -0.0453809499740601 -0.0565414801239967)
(0 -0.0483916215598583 -0.0539868511259556)
(0 0.0277445502579212 -0.0669812709093094)
(0 0.021800210699439 -0.069145642220974)
(0 0.0180034805089235 -0.0702296495437622)
(0 0.0141440499573946 -0.0711069330573082)
(0 0.0202890504151583 0.0696040466427803)
(0 0.0240481495857239 0.0683960169553757)
(0 -0.0635640174150467 -0.0348709709942341)
(0 -0.0653678998351097 -0.0313586816191673)
(0 -0.021800210699439 0.069145642220974)
(0 -0.0180034805089235 0.0702296495437622)
(0 -0.0277445502579212 -0.0669812709093094)
(0 -0.0334782786667347 -0.0643084272742271)
(0 -0.0369294695556164 -0.062390249222517)
(0 0.0669812709093094 0.0277445502579212)
(0 0.069145642220974 0.021800210699439)
(0 0.0702296495437622 0.0180034805089235)
(0 -0.0643084272742271 0.0334782786667347)
(0 -0.062390249222517 0.0369294695556164)
(0 0.0711069330573082 0.0141440499573946)
(0 -0.0669812709093094 -0.0277445502579212)
(0 -0.0141440499573946 0.0711069330573082)
(0 0.0402788408100605 -0.0602815486490726)
(0 0.0348709709942341 -0.0635640174150467)
(0 0.0313586816191673 -0.0653678998351097)
(0 0.0711069330573082 -0.0141440499573946)
(0 0.0696040466427803 -0.0202890504151583)
(0 0.0683960169553757 -0.0240481495857239)
(0 -0.0602815486490726 0.0402788408100605)
(0 -0.069145642220974 -0.021800210699439)
(0 -0.0702296495437622 -0.0180034805089235)
(0 -0.0141440499573946 -0.0711069330573082)
(0 -0.0202890504151583 -0.0696040466427803)
(0 -0.0240481495857239 -0.0683960169553757)
(0 -0.0565414801239967 0.0453809499740601)
(0 -0.0539868511259556 0.0483916215598583)
(0 0.0277445502579212 0.0669812709093094)
(0 -0.0711069330573082 -0.0141440499573946)
(0 -0.00789168197661638 0.0720700398087502)
(0 -0.00395642779767513 0.0723925083875656)
(0 0.0512652397155762 -0.0512652397155762)
(0 0.0466016605496407 -0.0555396713316441)
(0 0.0435087718069553 -0.0579941011965275)
(0 0 0.0724999979138374)
(0 0.0334782786667347 0.0643084272742271)
(0 0.0369294695556164 0.062390249222517)
(0 -0.0512652397155762 0.0512652397155762)
(0 -0.0720700398087502 -0.00789168197661638)
(0 -0.0723925083875656 -0.00395642779767513)
(0 0 -0.0724999979138374)
(0 -0.00632012216374278 -0.0722248330712318)
(0 -0.0102426698431373 -0.0717733725905418)
(0 0.0724999979138374 0)
(0 0.0722248330712318 -0.00632012216374278)
(0 0.0717733725905418 -0.0102426698431373)
(0 -0.0466016605496407 0.0555396713316441)
(0 -0.0435087718069553 0.0579941011965275)
(0 -0.0724999979138374 0)
(0 0.0565414801239967 -0.0453809499740601)
(0 0.0539868511259556 -0.0483916215598583)
(0 0.0635640174150467 0.0348709709942341)
(0 0.0653678998351097 0.0313586816191673)
(0 -0.0722248330712318 0.00632012216374278)
(0 0.00632012216374278 0.0722248330712318)
(0 0.00789168197661638 -0.0720700398087502)
(0 0.00395642779767513 -0.0723925083875656)
(0 0.0720700398087502 0.00789168197661638)
(0 0.0723925083875656 0.00395642779767513)
)


// edges:

96
(
(0 1)
(2 3)
(3 4)
(5 6)
(6 7)
(4 8)
(9 10)
(10 11)
(1 12)
(12 13)
(14 15)
(15 16)
(11 17)
(16 18)
(19 20)
(21 22)
(22 23)
(23 24)
(13 25)
(26 27)
(27 28)
(28 9)
(29 30)
(30 31)
(31 32)
(7 14)
(20 33)
(33 34)
(17 35)
(35 36)
(8 37)
(37 38)
(39 40)
(40 41)
(41 26)
(42 43)
(43 44)
(25 45)
(45 46)
(44 47)
(36 48)
(38 49)
(50 51)
(51 52)
(52 29)
(53 54)
(54 55)
(55 21)
(46 56)
(48 57)
(57 58)
(59 60)
(60 61)
(61 39)
(56 62)
(62 63)
(34 64)
(58 65)
(49 66)
(66 67)
(68 69)
(69 70)
(70 50)
(67 71)
(64 72)
(72 73)
(63 74)
(65 75)
(75 76)
(77 78)
(78 79)
(79 59)
(80 81)
(81 82)
(82 53)
(73 5)
(74 83)
(83 84)
(76 85)
(24 86)
(86 87)
(87 68)
(84 2)
(18 88)
(88 89)
(89 42)
(85 90)
(90 0)
(71 91)
(91 19)
(32 92)
(92 93)
(93 77)
(47 94)
(94 95)
(95 80)
)

// * * * * * * * * * * * * * * * * * * * * * * * * * * * * * * * * * * * * * //


// ************************************************************************* //
