/*--------------------------------*- C++ -*----------------------------------*\
| =========                 |                                                 |
| \\      /  F ield         | OpenFOAM: The Open Source CFD Toolbox           |
|  \\    /   O peration     | Version:  4.1                                   |
|   \\  /    A nd           | Web:      www.OpenFOAM.org                      |
|    \\/     M anipulation  |                                                 |
\*---------------------------------------------------------------------------*/
FoamFile
{
    version     2.0;
    format      ascii;
    class       featureEdgeMesh;
    location    "constant/triSurface";
    object      nozzle.eMesh;
}
// * * * * * * * * * * * * * * * * * * * * * * * * * * * * * * * * * * * * * //


// points:

179
(
(0.527999997138977 0.186701700091362 -0.116372101008892)
(0.527999997138977 0.192356303334236 -0.106766402721405)
(0.527999997138977 0.180567994713783 -0.12567900121212)
(0.527999997138977 0.173970699310303 -0.134663298726082)
(0.527999997138977 0.166926801204681 -0.143301904201508)
(0.527999997138977 0.134663298726082 -0.173970699310303)
(0.527999997138977 0.143301904201508 -0.166926801204681)
(0.527999997138977 0.12567900121212 -0.180567994713783)
(0.527999997138977 0.15945440530777 -0.151572704315186)
(0.527999997138977 0.151572704315186 -0.15945440530777)
(0.527999997138977 0.116372101008892 -0.186701700091362)
(0.527999997138977 0.106766402721405 -0.192356303334236)
(0.527999997138977 0.0764071568846703 -0.206305503845215)
(0.527999997138977 0.0867582932114601 -0.202170699834824)
(0.527999997138977 -7.96918084111322e-16 -0.219999998807907)
(0.527999997138977 0.0111428201198578 -0.219717606902122)
(0.527999997138977 0.0222570300102234 -0.218871295452118)
(0.527999997138977 0.0333141088485718 -0.217463001608849)
(0.527999997138977 0.065859891474247 -0.209910601377487)
(0.527999997138977 0.0551435612142086 -0.212977007031441)
(0.527999997138977 0.0442856699228287 -0.215496599674225)
(0.527999997138977 0.0968867093324661 0.197516992688179)
(0.527999997138977 0.0867582932114601 0.202170699834824)
(0.527999997138977 0.106766402721405 0.192356303334236)
(0.527999997138977 0.197516992688179 0.0968867093324661)
(0.527999997138977 0.192356303334236 0.106766402721405)
(0.527999997138977 0.202170699834824 0.0867582932114601)
(0.527999997138977 0.0111428201198578 0.219717606902122)
(0.527999997138977 7.54655216389391e-16 0.219999998807907)
(0.527999997138977 0.0222570300102234 0.218871295452118)
(0.527999997138977 0.0333141088485718 0.217463001608849)
(0.527999997138977 0.0764071568846703 0.206305503845215)
(0.527999997138977 0.197516992688179 -0.0968867093324661)
(0.527999997138977 0.202170699834824 -0.0867582932114601)
(0.527999997138977 0.116372101008892 0.186701700091362)
(0.527999997138977 0.12567900121212 0.180567994713783)
(0.527999997138977 0.0442856699228287 0.215496599674225)
(0.527999997138977 0.0551435612142086 0.212977007031441)
(0.527999997138977 0.065859891474247 0.209910601377487)
(0.527999997138977 0.0968867093324661 -0.197516992688179)
(0.527999997138977 0.134663298726082 0.173970699310303)
(0.527999997138977 0.143301904201508 0.166926801204681)
(0.527999997138977 0.173970699310303 0.134663298726082)
(0.527999997138977 0.166926801204681 0.143301904201508)
(0.527999997138977 0.180567994713783 0.12567900121212)
(0.527999997138977 0.186701700091362 0.116372101008892)
(0.527999997138977 0.151572704315186 0.15945440530777)
(0.527999997138977 0.15945440530777 0.151572704315186)
(0.527999997138977 0.206305503845215 0.0764071568846703)
(0.527999997138977 0.209910601377487 0.065859891474247)
(0.527999997138977 0.212977007031441 0.0551435612142086)
(0.527999997138977 0.215496599674225 0.0442856699228287)
(0.527999997138977 0.217463001608849 0.0333141088485718)
(0.527999997138977 0.218871295452118 0.0222570300102234)
(0.527999997138977 0.215496599674225 -0.0442856699228287)
(0.527999997138977 0.217463001608849 -0.0333141088485718)
(0.527999997138977 0.219717606902122 0.0111428201198578)
(0.527999997138977 0.219999998807907 1.3471110249917e-17)
(0.527999997138977 0.212977007031441 -0.0551435612142086)
(0.527999997138977 0.209910601377487 -0.065859891474247)
(0.527999997138977 0.218871295452118 -0.0222570300102234)
(0.527999997138977 0.219717606902122 -0.0111428201198578)
(0.527999997138977 0.206305503845215 -0.0764071568846703)
(0.527999997138977 -0.186701700091362 -0.116372101008892)
(0.527999997138977 -0.180567994713783 -0.12567900121212)
(0.527999997138977 -0.192356303334236 -0.106766402721405)
(0.527999997138977 -0.206305503845215 -0.0764071568846703)
(0.527999997138977 -0.202170699834824 -0.0867582932114601)
(0.527999997138977 -0.209910601377487 -0.065859891474247)
(0.527999997138977 -0.212977007031441 -0.0551435612142086)
(0.527999997138977 -0.215496599674225 -0.0442856699228287)
(0.527999997138977 -0.217463001608849 -0.0333141088485718)
(0.527999997138977 -0.218871295452118 -0.0222570300102234)
(0.527999997138977 -0.219717606902122 -0.0111428201198578)
(0.527999997138977 -0.219999998807907 1.52278196240927e-15)
(0.527999997138977 -0.215496599674225 0.0442856699228287)
(0.527999997138977 -0.217463001608849 0.0333141088485718)
(0.527999997138977 -0.212977007031441 0.0551435612142086)
(0.527999997138977 -0.218871295452118 0.0222570300102234)
(0.527999997138977 -0.209910601377487 0.065859891474247)
(0.527999997138977 -0.219717606902122 0.0111428201198578)
(0.527999997138977 -0.206305503845215 0.0764071568846703)
(0.527999997138977 -0.202170699834824 0.0867582932114601)
(0.527999997138977 -0.186701700091362 0.116372101008892)
(0.527999997138977 -0.192356303334236 0.106766402721405)
(0.527999997138977 -0.180567994713783 0.12567900121212)
(0.527999997138977 -0.173970699310303 0.134663298726082)
(0.527999997138977 -0.166926801204681 0.143301904201508)
(0.527999997138977 -0.15945440530777 0.151572704315186)
(0.527999997138977 -0.134663298726082 0.173970699310303)
(0.527999997138977 -0.143301904201508 0.166926801204681)
(0.527999997138977 -0.151572704315186 0.15945440530777)
(0.527999997138977 -0.12567900121212 0.180567994713783)
(0.527999997138977 -0.116372101008892 0.186701700091362)
(0.527999997138977 -0.106766402721405 0.192356303334236)
(0.527999997138977 -0.065859891474247 0.209910601377487)
(0.527999997138977 -0.0764071568846703 0.206305503845215)
(0.527999997138977 -0.0551435612142086 0.212977007031441)
(0.527999997138977 -0.0442856699228287 0.215496599674225)
(0.527999997138977 -0.0333141088485718 0.217463001608849)
(0.527999997138977 -0.0867582932114601 0.202170699834824)
(0.527999997138977 -0.0111428201198578 0.219717606902122)
(0.527999997138977 -0.0222570300102234 0.218871295452118)
(0.527999997138977 -0.0968867093324661 -0.197516992688179)
(0.527999997138977 -0.0867582932114601 -0.202170699834824)
(0.527999997138977 -0.106766402721405 -0.192356303334236)
(0.527999997138977 -0.0111428201198578 -0.219717606902122)
(0.527999997138977 -0.197516992688179 -0.0968867093324661)
(0.527999997138977 -0.0222570300102234 -0.218871295452118)
(0.527999997138977 -0.0333141088485718 -0.217463001608849)
(0.527999997138977 -0.0764071568846703 -0.206305503845215)
(0.527999997138977 -0.0442856699228287 -0.215496599674225)
(0.527999997138977 -0.0551435612142086 -0.212977007031441)
(0.527999997138977 -0.065859891474247 -0.209910601377487)
(0.527999997138977 -0.116372101008892 -0.186701700091362)
(0.527999997138977 -0.12567900121212 -0.180567994713783)
(0.527999997138977 -0.134663298726082 -0.173970699310303)
(0.527999997138977 -0.143301904201508 -0.166926801204681)
(0.527999997138977 -0.197516992688179 0.0968867093324661)
(0.527999997138977 -0.0968867093324661 0.197516992688179)
(0.527999997138977 -0.173970699310303 -0.134663298726082)
(0.527999997138977 -0.166926801204681 -0.143301904201508)
(0.527999997138977 -0.151572704315186 -0.15945440530777)
(0.527999997138977 -0.15945440530777 -0.151572704315186)
(-4.37175707082238e-18 0.0125894900411367 0.071398563683033)
(-4.28793596422024e-18 0.0187643803656101 0.070029616355896)
(-4.17148216886258e-18 0.0247964598238468 0.0681277215480804)
(-4.02327994082421e-18 0.0306398198008537 0.0657073110342026)
(-3.84445796805096e-18 0.0362499989569187 0.062786839902401)
(-3.63637820342141e-18 0.0415842905640602 0.0593885183334351)
(-3.40062304344736e-18 0.0466021001338959 0.0555382184684277)
(-2.5462190897546e-18 0.0593885183334351 0.0415842905640602)
(-2.21959896667222e-18 0.062786839902401 0.0362499989569187)
(-2.85346105942186e-18 0.0555382184684277 0.0466021001338959)
(-4.4223060780555e-18 0.00631879083812237 0.0722241178154945)
(0 0 0.0724999979138374)
(-1.87608595432513e-18 0.0657073110342026 0.0306398198008537)
(-1.51829497742476e-18 0.0681277215480804 0.0247964598238468)
(-1.14894901115006e-18 0.070029616355896 0.0187643803656101)
(-3.13898705646776e-18 0.0512652397155762 0.0512652397155762)
(-7.70858608427328e-19 0.071398563683033 0.0125894900411367)
(-3.86901608155826e-19 0.0722241178154945 0.00631879083812237)
(2.71822507545596e-34 0.0724999979138374 -4.43934517149348e-18)
(3.86901608155826e-19 0.0722241178154945 -0.00631879083812237)
(7.70858608427328e-19 0.071398563683033 -0.0125894900411367)
(1.14894901115006e-18 0.070029616355896 -0.0187643803656101)
(1.51829497742476e-18 0.0681277215480804 -0.0247964598238468)
(1.87608595432513e-18 0.0657073110342026 -0.0306398198008537)
(2.21959896667222e-18 0.062786839902401 -0.0362499989569187)
(2.5462190897546e-18 0.0593885183334351 -0.0415842905640602)
(2.85346105942186e-18 0.0555382184684277 -0.0466021001338959)
(3.13898705646776e-18 0.0512652397155762 -0.0512652397155762)
(3.40062304344736e-18 0.0466021001338959 -0.0555382184684277)
(3.63637820342141e-18 0.0415842905640602 -0.0593885183334351)
(3.84445796805096e-18 0.0362499989569187 -0.062786839902401)
(4.02327994082421e-18 0.0306398198008537 -0.0657073110342026)
(4.17148216886258e-18 0.0247964598238468 -0.0681277215480804)
(4.28793596422024e-18 0.0187643803656101 -0.070029616355896)
(4.37175707082238e-18 0.0125894900411367 -0.071398563683033)
(4.4223060780555e-18 0.00631879083812237 -0.0722241178154945)
(0 0 -0.0724999979138374)
(0 -0.0111400503665209 -0.0716394111514091)
(0 -0.0220225304365158 -0.0690751373767853)
(0 -0.0600488483905792 -0.04062495008111)
(0 -0.0655776411294937 -0.0309174694120884)
(0 -0.0334628000855446 -0.064316488802433)
(0 -0.043924979865551 -0.057679608464241)
(0 -0.053105641156435 -0.0493567287921906)
(0 -0.069886326789856 -0.0192939694970846)
(0 -0.0721512734889984 -0.00711101712659001)
(0 -0.0723083764314651 0.00527771282941103)
(0 -0.0703534632921219 0.0175130292773247)
(0 -0.0668338090181351 0.0280979201197624)
(0 -0.0617250390350819 0.0380304493010044)
(0 -0.0543422810733318 0.0479922704398632)
(0 -0.0453745499253273 0.0565466210246086)
(0 -0.035083569586277 0.0634469091892242)
(0 -0.0237682498991489 0.0684938430786133)
(0 -0.0120496200397611 0.0714918822050095)
)


// edges:

179
(
(124 125)
(126 127)
(125 126)
(127 128)
(129 130)
(128 129)
(131 132)
(133 131)
(134 124)
(135 134)
(132 136)
(137 138)
(136 137)
(139 133)
(130 139)
(140 141)
(138 140)
(141 142)
(142 143)
(144 145)
(143 144)
(146 147)
(145 146)
(147 148)
(149 150)
(148 149)
(151 152)
(150 151)
(153 154)
(152 153)
(154 155)
(156 157)
(155 156)
(157 158)
(159 160)
(158 159)
(160 161)
(161 162)
(163 164)
(162 165)
(165 166)
(166 167)
(168 169)
(164 168)
(169 170)
(171 172)
(172 173)
(173 174)
(175 176)
(170 171)
(174 175)
(177 178)
(178 135)
(176 177)
(167 163)
(0 1)
(2 0)
(3 2)
(4 3)
(5 6)
(7 5)
(8 4)
(9 8)
(6 9)
(10 7)
(11 10)
(12 13)
(14 15)
(16 17)
(15 16)
(18 12)
(19 18)
(20 19)
(17 20)
(21 22)
(23 21)
(24 25)
(26 24)
(27 28)
(29 27)
(30 29)
(22 31)
(32 33)
(1 32)
(34 23)
(35 34)
(36 30)
(37 36)
(38 37)
(31 38)
(39 11)
(13 39)
(40 35)
(41 40)
(42 43)
(44 42)
(45 44)
(25 45)
(46 41)
(47 46)
(43 47)
(48 26)
(49 48)
(50 49)
(51 50)
(52 51)
(53 52)
(54 55)
(56 53)
(57 56)
(58 54)
(59 58)
(55 60)
(61 57)
(60 61)
(62 59)
(33 62)
(63 64)
(65 63)
(66 67)
(68 66)
(69 68)
(70 69)
(71 70)
(72 71)
(73 72)
(74 73)
(75 76)
(77 75)
(76 78)
(79 77)
(80 74)
(78 80)
(81 79)
(82 81)
(83 84)
(85 83)
(86 85)
(87 86)
(88 87)
(89 90)
(91 88)
(90 91)
(92 89)
(93 92)
(94 93)
(95 96)
(97 95)
(98 97)
(99 98)
(96 100)
(28 101)
(102 99)
(101 102)
(103 104)
(105 103)
(106 14)
(107 65)
(67 107)
(108 106)
(109 108)
(104 110)
(111 109)
(112 111)
(113 112)
(110 113)
(114 105)
(115 114)
(116 115)
(117 116)
(118 82)
(84 118)
(119 94)
(100 119)
(120 121)
(64 120)
(122 117)
(123 122)
(121 123)
)

// * * * * * * * * * * * * * * * * * * * * * * * * * * * * * * * * * * * * * //


// ************************************************************************* //
