/*--------------------------------*- C++ -*----------------------------------*\
| =========                 |                                                 |
| \\      /  F ield         | OpenFOAM: The Open Source CFD Toolbox           |
|  \\    /   O peration     | Version:  4.1                                   |
|   \\  /    A nd           | Web:      www.OpenFOAM.org                      |
|    \\/     M anipulation  |                                                 |
\*---------------------------------------------------------------------------*/
FoamFile
{
    version     2.0;
    format      ascii;
    class       featureEdgeMesh;
    location    "constant/triSurface";
    object      wall.eMesh;
}
// * * * * * * * * * * * * * * * * * * * * * * * * * * * * * * * * * * * * * //


// points:

308
(
(-1.60362300030782e-18 -0.06760423630476 0.0261900201439857)
(-1.97872107716464e-18 -0.0648993402719498 0.0323160290718079)
(-1.21484397650483e-18 -0.0697323605418205 0.019840570166707)
(-2.33693701810471e-18 -0.061640739440918 0.0381663292646408)
(-2.67521397717434e-18 -0.0578562505543232 0.0436910092830658)
(-2.99066798916787e-18 -0.0535781495273113 0.0488429293036461)
(-3.28060699478174e-18 -0.0488429293036461 0.0535781495273113)
(-3.54255689680381e-18 -0.0436910092830658 0.0578562505543232)
(-3.77428203283349e-18 -0.0381663292646408 0.061640739440918)
(-3.97380709556802e-18 -0.0323160290718079 0.0648993402719498)
(-4.13942892012615e-18 -0.0261900201439857 0.06760423630476)
(-4.26973509561193e-18 -0.019840570166707 0.0697323605418205)
(-4.36361182333057e-18 -0.0133218402042985 0.0712655484676361)
(4.42026087399096e-18 -0.00668945582583547 -0.0721907317638397)
(4.36361182333057e-18 -0.0133218402042985 -0.0712655484676361)
(2.21959896667222e-18 0 -0.0724999979138374)
(-1.80114901499554e-33 -0.0724999979138374 2.94159686417617e-17)
(-4.0959750545972e-19 -0.0721907317638397 0.00668945582583547)
(4.0959750545972e-19 -0.0721907317638397 -0.00668945582583547)
(-4.42026087399096e-18 -0.00668945582583547 0.0721907317638397)
(-2.21959896667222e-18 4.43919793334444e-18 0.0724999979138374)
(4.26973509561193e-18 -0.019840570166707 -0.0697323605418205)
(4.13942892012615e-18 -0.0261900201439857 -0.06760423630476)
(3.97380709556802e-18 -0.0323160290718079 -0.0648993402719498)
(3.77428203283349e-18 -0.0381663292646408 -0.061640739440918)
(3.54255689680381e-18 -0.0436910092830658 -0.0578562505543232)
(3.28060699478174e-18 -0.0488429293036461 -0.0535781495273113)
(2.99066798916787e-18 -0.0535781495273113 -0.0488429293036461)
(2.67521397717434e-18 -0.0578562505543232 -0.0436910092830658)
(2.33693701810471e-18 -0.061640739440918 -0.0381663292646408)
(1.97872107716464e-18 -0.0648993402719498 -0.0323160290718079)
(1.60362300030782e-18 -0.06760423630476 -0.0261900201439857)
(1.21484397650483e-18 -0.0697323605418205 -0.019840570166707)
(8.15700483024134e-19 -0.0712655484676361 -0.0133218402042985)
(-8.15700483024134e-19 -0.0712655484676361 0.0133218402042985)
(1.60362300030782e-18 0.06760423630476 -0.0261900201439857)
(1.97872107716464e-18 0.0648993402719498 -0.0323160290718079)
(1.21484397650483e-18 0.0697323605418205 -0.019840570166707)
(2.33693701810471e-18 0.061640739440918 -0.0381663292646408)
(2.67521397717434e-18 0.0578562505543232 -0.0436910092830658)
(2.99066798916787e-18 0.0535781495273113 -0.0488429293036461)
(3.28060699478174e-18 0.0488429293036461 -0.0535781495273113)
(3.54255689680381e-18 0.0436910092830658 -0.0578562505543232)
(3.77428203283349e-18 0.0381663292646408 -0.061640739440918)
(3.97380709556802e-18 0.0323160290718079 -0.0648993402719498)
(4.13942892012615e-18 0.0261900201439857 -0.06760423630476)
(4.26973509561193e-18 0.019840570166707 -0.0697323605418205)
(4.36361182333057e-18 0.0133218402042985 -0.0712655484676361)
(-4.42026087399096e-18 0.00668945582583547 0.0721907317638397)
(-4.36361182333057e-18 0.0133218402042985 0.0712655484676361)
(1.2575219996616e-33 0.0724999979138374 -2.05375793925177e-17)
(4.0959750545972e-19 0.0721907317638397 -0.00668945582583547)
(-4.0959750545972e-19 0.0721907317638397 0.00668945582583547)
(4.42026087399096e-18 0.00668945582583547 -0.0721907317638397)
(-4.26973509561193e-18 0.019840570166707 0.0697323605418205)
(-4.13942892012615e-18 0.0261900201439857 0.06760423630476)
(-3.97380709556802e-18 0.0323160290718079 0.0648993402719498)
(-3.77428203283349e-18 0.0381663292646408 0.061640739440918)
(-3.54255689680381e-18 0.0436910092830658 0.0578562505543232)
(-3.28060699478174e-18 0.0488429293036461 0.0535781495273113)
(-2.99066798916787e-18 0.0535781495273113 0.0488429293036461)
(-2.67521397717434e-18 0.0578562505543232 0.0436910092830658)
(-2.33693701810471e-18 0.061640739440918 0.0381663292646408)
(-1.97872107716464e-18 0.0648993402719498 0.0323160290718079)
(-1.60362300030782e-18 0.06760423630476 0.0261900201439857)
(-1.21484397650483e-18 0.0697323605418205 0.019840570166707)
(-8.15700483024134e-19 0.0712655484676361 0.0133218402042985)
(8.15700483024134e-19 0.0712655484676361 -0.0133218402042985)
(-0.0411102697253227 -0.177983701229095 -0.129312798380852)
(-0.0411102697253227 -0.170972093939781 -0.138450503349304)
(-0.0411102697253227 -0.147208705544472 0.163491904735565)
(-0.0411102697253227 -0.155563503503799 0.155563503503799)
(-0.0411102697253227 -0.163491904735565 -0.147208705544472)
(-0.0411102697253227 -0.155563503503799 -0.155563503503799)
(-0.0411102697253227 -0.163491904735565 0.147208705544472)
(-0.0411102697253227 -0.147208705544472 -0.163491904735565)
(-0.0411102697253227 -0.138450503349304 -0.170972093939781)
(-0.0411102697253227 -0.129312798380852 -0.177983701229095)
(-0.0411102697253227 -0.170972093939781 0.138450503349304)
(-0.0411102697253227 -0.119820602238178 -0.184507504105568)
(-0.0411102697253227 -0.109999999403954 -0.190525606274605)
(-0.0411102697253227 -0.0998779088258743 -0.196021392941475)
(-0.0411102697253227 -0.0894820615649223 -0.200979992747307)
(-0.0411102697253227 -0.177983701229095 0.129312798380852)
(-0.0411102697253227 -0.0788409486413002 -0.205387696623802)
(-0.0411102697253227 -0.0679837390780449 -0.209232404828072)
(-0.0411102697253227 -0.0569401904940605 -0.212503701448441)
(-0.0411102697253227 -0.0457405708730221 -0.215192496776581)
(-0.0411102697253227 -0.0344155803322792 -0.21729139983654)
(-0.0411102697253227 -0.0229962598532438 -0.218794792890549)
(-0.0411102697253227 -0.184507504105568 0.119820602238178)
(-0.0411102697253227 -0.0115139102563262 -0.219698503613472)
(-0.0411102697253227 3.78478011285965e-16 -0.219999998807907)
(-0.0411102697253227 -0.190525606274605 0.109999999403954)
(-0.0411102697253227 -3.77324405351364e-16 0.219999998807907)
(-0.0411102697253227 -0.0115139102563262 0.219698503613472)
(-0.0411102697253227 -0.196021392941475 0.0998779088258743)
(-0.0411102697253227 -0.0229962598532438 0.218794792890549)
(-0.0411102697253227 -0.200979992747307 0.0894820615649223)
(-0.0411102697253227 -0.0344155803322792 0.21729139983654)
(-0.0411102697253227 -0.205387696623802 0.0788409486413002)
(-0.0411102697253227 -0.209232404828072 0.0679837390780449)
(-0.0411102697253227 -0.0457405708730221 0.215192496776581)
(-0.0411102697253227 -0.212503701448441 0.0569401904940605)
(-0.0411102697253227 -0.0569401904940605 0.212503701448441)
(-0.0411102697253227 -0.215192496776581 0.0457405708730221)
(-0.0411102697253227 -0.0679837390780449 0.209232404828072)
(-0.0411102697253227 -0.21729139983654 0.0344155803322792)
(-0.0411102697253227 -0.218794792890549 0.0229962598532438)
(-0.0411102697253227 -0.0788409486413002 0.205387696623802)
(-0.0411102697253227 -0.219698503613472 0.0115139102563262)
(-0.0411102697253227 -0.219999998807907 -2.21547194652338e-12)
(-0.0411102697253227 -0.0894820615649223 0.200979992747307)
(-0.0411102697253227 -0.219698503613472 -0.0115139102563262)
(-0.0411102697253227 -0.218794792890549 -0.0229962598532438)
(-0.0411102697253227 -0.0998779088258743 0.196021392941475)
(-0.0411102697253227 -0.21729139983654 -0.0344155803322792)
(-0.0411102697253227 -0.215192496776581 -0.0457405708730221)
(-0.0411102697253227 -0.109999999403954 0.190525606274605)
(-0.0411102697253227 -0.212503701448441 -0.0569401904940605)
(-0.0411102697253227 -0.119820602238178 0.184507504105568)
(-0.0411102697253227 -0.209232404828072 -0.0679837390780449)
(-0.0411102697253227 -0.205387696623802 -0.0788409486413002)
(-0.0411102697253227 -0.129312798380852 0.177983701229095)
(-0.0411102697253227 -0.200979992747307 -0.0894820615649223)
(-0.0411102697253227 -0.196021392941475 -0.0998779088258743)
(-0.0411102697253227 -0.138450503349304 0.170972093939781)
(-0.0411102697253227 -0.190525606274605 -0.109999999403954)
(-0.0411102697253227 -0.184507504105568 -0.119820602238178)
(-0.0411102697253227 0.177983701229095 0.129312798380852)
(-0.0411102697253227 0.170972093939781 0.138450503349304)
(-0.0411102697253227 0.147208705544472 -0.163491904735565)
(-0.0411102697253227 0.155563503503799 -0.155563503503799)
(-0.0411102697253227 0.163491904735565 0.147208705544472)
(-0.0411102697253227 0.155563503503799 0.155563503503799)
(-0.0411102697253227 0.163491904735565 -0.147208705544472)
(-0.0411102697253227 0.147208705544472 0.163491904735565)
(-0.0411102697253227 0.138450503349304 0.170972093939781)
(-0.0411102697253227 0.129312798380852 0.177983701229095)
(-0.0411102697253227 0.170972093939781 -0.138450503349304)
(-0.0411102697253227 0.119820602238178 0.184507504105568)
(-0.0411102697253227 0.109999999403954 0.190525606274605)
(-0.0411102697253227 0.0998779088258743 0.196021392941475)
(-0.0411102697253227 0.177983701229095 -0.129312798380852)
(-0.0411102697253227 0.0894820615649223 0.200979992747307)
(-0.0411102697253227 0.0788409486413002 0.205387696623802)
(-0.0411102697253227 0.0679837390780449 0.209232404828072)
(-0.0411102697253227 0.184507504105568 -0.119820602238178)
(-0.0411102697253227 0.0569401904940605 0.212503701448441)
(-0.0411102697253227 0.0457405708730221 0.215192496776581)
(-0.0411102697253227 0.0344155803322792 0.21729139983654)
(-0.0411102697253227 0.0229962598532438 0.218794792890549)
(-0.0411102697253227 0.0115139102563262 0.219698503613472)
(-0.0411102697253227 0.190525606274605 -0.109999999403954)
(-0.0411102697253227 0.0115139102563262 -0.219698503613472)
(-0.0411102697253227 0.196021392941475 -0.0998779088258743)
(-0.0411102697253227 0.0229962598532438 -0.218794792890549)
(-0.0411102697253227 0.200979992747307 -0.0894820615649223)
(-0.0411102697253227 0.0344155803322792 -0.21729139983654)
(-0.0411102697253227 0.205387696623802 -0.0788409486413002)
(-0.0411102697253227 0.209232404828072 -0.0679837390780449)
(-0.0411102697253227 0.0457405708730221 -0.215192496776581)
(-0.0411102697253227 0.0569401904940605 -0.212503701448441)
(-0.0411102697253227 0.212503701448441 -0.0569401904940605)
(-0.0411102697253227 0.215192496776581 -0.0457405708730221)
(-0.0411102697253227 0.0679837390780449 -0.209232404828072)
(-0.0411102697253227 0.21729139983654 -0.0344155803322792)
(-0.0411102697253227 0.218794792890549 -0.0229962598532438)
(-0.0411102697253227 0.219698503613472 -0.0115139102563262)
(-0.0411102697253227 0.0788409486413002 -0.205387696623802)
(-0.0411102697253227 0.219999998807907 2.21393606572584e-12)
(-0.0411102697253227 0.0894820615649223 -0.200979992747307)
(-0.0411102697253227 0.219698503613472 0.0115139102563262)
(-0.0411102697253227 0.218794792890549 0.0229962598532438)
(-0.0411102697253227 0.0998779088258743 -0.196021392941475)
(-0.0411102697253227 0.21729139983654 0.0344155803322792)
(-0.0411102697253227 0.215192496776581 0.0457405708730221)
(-0.0411102697253227 0.109999999403954 -0.190525606274605)
(-0.0411102697253227 0.212503701448441 0.0569401904940605)
(-0.0411102697253227 0.119820602238178 -0.184507504105568)
(-0.0411102697253227 0.209232404828072 0.0679837390780449)
(-0.0411102697253227 0.205387696623802 0.0788409486413002)
(-0.0411102697253227 0.129312798380852 -0.177983701229095)
(-0.0411102697253227 0.200979992747307 0.0894820615649223)
(-0.0411102697253227 0.196021392941475 0.0998779088258743)
(-0.0411102697253227 0.138450503349304 -0.170972093939781)
(-0.0411102697253227 0.190525606274605 0.109999999403954)
(-0.0411102697253227 0.184507504105568 0.119820602238178)
(0.527999997138977 -0.200979992747307 0.0894820615649223)
(0.527999997138977 -0.205387696623802 0.0788409486413002)
(0.527999997138977 -0.196021392941475 0.0998779088258743)
(0.527999997138977 -0.119820602238178 0.184507504105568)
(0.527999997138977 -0.129312798380852 0.177983701229095)
(0.527999997138977 -0.184507504105568 0.119820602238178)
(0.527999997138977 -0.190525606274605 0.109999999403954)
(0.527999997138977 -0.109999999403954 0.190525606274605)
(0.527999997138977 -0.0998779088258743 0.196021392941475)
(0.527999997138977 -0.0788409486413002 0.205387696623802)
(0.527999997138977 -0.0894820615649223 0.200979992747307)
(0.527999997138977 -0.0115139102563262 -0.219698503613472)
(0.527999997138977 -7.96918084111322e-16 -0.219999998807907)
(0.527999997138977 -0.215192496776581 -0.0457405708730221)
(0.527999997138977 -0.212503701448441 -0.0569401904940605)
(0.527999997138977 -0.21729139983654 -0.0344155803322792)
(0.527999997138977 -0.218794792890549 -0.0229962598532438)
(0.527999997138977 -0.219698503613472 -0.0115139102563262)
(0.527999997138977 -0.0229962598532438 -0.218794792890549)
(0.527999997138977 -0.0344155803322792 -0.21729139983654)
(0.527999997138977 -0.0457405708730221 -0.215192496776581)
(0.527999997138977 -0.0569401904940605 -0.212503701448441)
(0.527999997138977 -0.0679837390780449 -0.209232404828072)
(0.527999997138977 -0.0788409486413002 -0.205387696623802)
(0.527999997138977 -0.147208705544472 -0.163491904735565)
(0.527999997138977 -0.138450503349304 -0.170972093939781)
(0.527999997138977 -0.155563503503799 -0.155563503503799)
(0.527999997138977 -0.163491904735565 -0.147208705544472)
(0.527999997138977 -0.177983701229095 -0.129312798380852)
(0.527999997138977 -0.170972093939781 -0.138450503349304)
(0.527999997138977 -0.218794792890549 0.0229962598532438)
(0.527999997138977 -0.219698503613472 0.0115139102563262)
(0.527999997138977 -0.21729139983654 0.0344155803322792)
(0.527999997138977 -0.184507504105568 -0.119820602238178)
(0.527999997138977 -0.215192496776581 0.0457405708730221)
(0.527999997138977 -0.212503701448441 0.0569401904940605)
(0.527999997138977 -0.0679837390780449 0.209232404828072)
(0.527999997138977 -0.0569401904940605 0.212503701448441)
(0.527999997138977 -0.0457405708730221 0.215192496776581)
(0.527999997138977 7.54655216389391e-16 0.219999998807907)
(0.527999997138977 -0.0115139102563262 0.219698503613472)
(0.527999997138977 -0.0344155803322792 0.21729139983654)
(0.527999997138977 -0.0229962598532438 0.218794792890549)
(0.527999997138977 -0.177983701229095 0.129312798380852)
(0.527999997138977 -0.170972093939781 0.138450503349304)
(0.527999997138977 -0.163491904735565 0.147208705544472)
(0.527999997138977 -0.155563503503799 0.155563503503799)
(0.527999997138977 -0.147208705544472 0.163491904735565)
(0.527999997138977 -0.138450503349304 0.170972093939781)
(0.527999997138977 -0.219999998807907 1.42508200589941e-15)
(0.527999997138977 -0.190525606274605 -0.109999999403954)
(0.527999997138977 -0.196021392941475 -0.0998779088258743)
(0.527999997138977 -0.200979992747307 -0.0894820615649223)
(0.527999997138977 -0.209232404828072 -0.0679837390780449)
(0.527999997138977 -0.205387696623802 -0.0788409486413002)
(0.527999997138977 -0.0894820615649223 -0.200979992747307)
(0.527999997138977 -0.0998779088258743 -0.196021392941475)
(0.527999997138977 -0.109999999403954 -0.190525606274605)
(0.527999997138977 -0.129312798380852 -0.177983701229095)
(0.527999997138977 -0.119820602238178 -0.184507504105568)
(0.527999997138977 -0.209232404828072 0.0679837390780449)
(0.527999997138977 0.200979992747307 -0.0894820615649223)
(0.527999997138977 0.205387696623802 -0.0788409486413002)
(0.527999997138977 0.196021392941475 -0.0998779088258743)
(0.527999997138977 0.119820602238178 -0.184507504105568)
(0.527999997138977 0.129312798380852 -0.177983701229095)
(0.527999997138977 0.184507504105568 -0.119820602238178)
(0.527999997138977 0.190525606274605 -0.109999999403954)
(0.527999997138977 0.109999999403954 -0.190525606274605)
(0.527999997138977 0.0998779088258743 -0.196021392941475)
(0.527999997138977 0.0788409486413002 -0.205387696623802)
(0.527999997138977 0.0894820615649223 -0.200979992747307)
(0.527999997138977 0.0115139102563262 0.219698503613472)
(0.527999997138977 0.215192496776581 0.0457405708730221)
(0.527999997138977 0.212503701448441 0.0569401904940605)
(0.527999997138977 0.21729139983654 0.0344155803322792)
(0.527999997138977 0.218794792890549 0.0229962598532438)
(0.527999997138977 0.219698503613472 0.0115139102563262)
(0.527999997138977 0.0229962598532438 0.218794792890549)
(0.527999997138977 0.0344155803322792 0.21729139983654)
(0.527999997138977 0.0457405708730221 0.215192496776581)
(0.527999997138977 0.0569401904940605 0.212503701448441)
(0.527999997138977 0.0679837390780449 0.209232404828072)
(0.527999997138977 0.0788409486413002 0.205387696623802)
(0.527999997138977 0.147208705544472 0.163491904735565)
(0.527999997138977 0.138450503349304 0.170972093939781)
(0.527999997138977 0.155563503503799 0.155563503503799)
(0.527999997138977 0.163491904735565 0.147208705544472)
(0.527999997138977 0.177983701229095 0.129312798380852)
(0.527999997138977 0.170972093939781 0.138450503349304)
(0.527999997138977 0.218794792890549 -0.0229962598532438)
(0.527999997138977 0.219698503613472 -0.0115139102563262)
(0.527999997138977 0.184507504105568 0.119820602238178)
(0.527999997138977 0.21729139983654 -0.0344155803322792)
(0.527999997138977 0.215192496776581 -0.0457405708730221)
(0.527999997138977 0.212503701448441 -0.0569401904940605)
(0.527999997138977 0.0679837390780449 -0.209232404828072)
(0.527999997138977 0.0569401904940605 -0.212503701448441)
(0.527999997138977 0.0457405708730221 -0.215192496776581)
(0.527999997138977 0.0115139102563262 -0.219698503613472)
(0.527999997138977 0.0344155803322792 -0.21729139983654)
(0.527999997138977 0.0229962598532438 -0.218794792890549)
(0.527999997138977 0.177983701229095 -0.129312798380852)
(0.527999997138977 0.170972093939781 -0.138450503349304)
(0.527999997138977 0.163491904735565 -0.147208705544472)
(0.527999997138977 0.155563503503799 -0.155563503503799)
(0.527999997138977 0.147208705544472 -0.163491904735565)
(0.527999997138977 0.138450503349304 -0.170972093939781)
(0.527999997138977 0.219999998807907 1.11170705281853e-16)
(0.527999997138977 0.190525606274605 0.109999999403954)
(0.527999997138977 0.196021392941475 0.0998779088258743)
(0.527999997138977 0.200979992747307 0.0894820615649223)
(0.527999997138977 0.209232404828072 0.0679837390780449)
(0.527999997138977 0.205387696623802 0.0788409486413002)
(0.527999997138977 0.0894820615649223 0.200979992747307)
(0.527999997138977 0.0998779088258743 0.196021392941475)
(0.527999997138977 0.109999999403954 0.190525606274605)
(0.527999997138977 0.129312798380852 0.177983701229095)
(0.527999997138977 0.119820602238178 0.184507504105568)
(0.527999997138977 0.209232404828072 -0.0679837390780449)
)


// edges:

308
(
(188 189)
(190 188)
(191 192)
(193 194)
(194 190)
(195 191)
(196 195)
(197 198)
(198 196)
(199 200)
(201 202)
(203 201)
(204 203)
(205 204)
(206 199)
(207 206)
(208 207)
(209 208)
(210 209)
(211 210)
(212 213)
(214 212)
(215 214)
(216 217)
(218 219)
(217 215)
(220 218)
(221 216)
(222 220)
(223 222)
(224 197)
(225 224)
(226 225)
(227 228)
(229 226)
(230 229)
(228 230)
(231 193)
(232 231)
(233 232)
(234 233)
(235 234)
(236 235)
(237 205)
(219 237)
(238 221)
(239 238)
(240 239)
(241 242)
(242 240)
(202 241)
(243 211)
(244 243)
(245 244)
(246 247)
(247 245)
(213 246)
(248 223)
(189 248)
(192 236)
(249 250)
(251 249)
(252 253)
(254 255)
(255 251)
(256 252)
(257 256)
(258 259)
(259 257)
(260 227)
(261 262)
(263 261)
(264 263)
(265 264)
(266 260)
(267 266)
(268 267)
(269 268)
(270 269)
(271 270)
(272 273)
(274 272)
(275 274)
(276 277)
(278 279)
(277 275)
(280 276)
(281 278)
(282 281)
(283 282)
(284 258)
(285 284)
(286 285)
(200 287)
(288 286)
(289 288)
(287 289)
(290 254)
(291 290)
(292 291)
(293 292)
(294 293)
(295 294)
(296 265)
(279 296)
(297 280)
(298 297)
(299 298)
(300 301)
(301 299)
(262 300)
(302 271)
(303 302)
(304 303)
(305 306)
(306 304)
(273 305)
(307 283)
(250 307)
(253 295)
(0 1)
(2 0)
(1 3)
(3 4)
(4 5)
(6 7)
(5 6)
(8 9)
(7 8)
(9 10)
(10 11)
(11 12)
(13 14)
(15 13)
(16 17)
(18 16)
(19 20)
(12 19)
(14 21)
(21 22)
(22 23)
(24 25)
(23 24)
(26 27)
(25 26)
(27 28)
(28 29)
(29 30)
(31 32)
(30 31)
(33 18)
(32 33)
(34 2)
(17 34)
(35 36)
(37 35)
(36 38)
(38 39)
(39 40)
(41 42)
(40 41)
(43 44)
(42 43)
(44 45)
(45 46)
(46 47)
(48 49)
(20 48)
(50 51)
(52 50)
(53 15)
(47 53)
(49 54)
(54 55)
(55 56)
(57 58)
(56 57)
(59 60)
(58 59)
(60 61)
(61 62)
(62 63)
(64 65)
(63 64)
(66 52)
(65 66)
(67 37)
(51 67)
(68 69)
(70 71)
(69 72)
(72 73)
(71 74)
(73 75)
(75 76)
(76 77)
(74 78)
(77 79)
(79 80)
(80 81)
(81 82)
(78 83)
(82 84)
(84 85)
(85 86)
(86 87)
(87 88)
(88 89)
(83 90)
(89 91)
(91 92)
(90 93)
(94 95)
(93 96)
(95 97)
(96 98)
(97 99)
(98 100)
(100 101)
(99 102)
(101 103)
(102 104)
(103 105)
(104 106)
(105 107)
(107 108)
(106 109)
(108 110)
(110 111)
(109 112)
(111 113)
(113 114)
(112 115)
(114 116)
(116 117)
(115 118)
(117 119)
(118 120)
(119 121)
(121 122)
(120 123)
(122 124)
(124 125)
(123 126)
(125 127)
(127 128)
(126 70)
(128 68)
(129 130)
(131 132)
(130 133)
(133 134)
(132 135)
(134 136)
(136 137)
(137 138)
(135 139)
(138 140)
(140 141)
(141 142)
(139 143)
(142 144)
(144 145)
(145 146)
(143 147)
(146 148)
(148 149)
(149 150)
(150 151)
(151 152)
(152 94)
(147 153)
(92 154)
(153 155)
(154 156)
(155 157)
(156 158)
(157 159)
(159 160)
(158 161)
(161 162)
(160 163)
(163 164)
(162 165)
(164 166)
(166 167)
(167 168)
(165 169)
(168 170)
(169 171)
(170 172)
(172 173)
(171 174)
(173 175)
(175 176)
(174 177)
(176 178)
(177 179)
(178 180)
(180 181)
(179 182)
(181 183)
(183 184)
(182 185)
(184 186)
(186 187)
(185 131)
(187 129)
)

// * * * * * * * * * * * * * * * * * * * * * * * * * * * * * * * * * * * * * //


// ************************************************************************* //
