/*--------------------------------*- C++ -*----------------------------------*\
| =========                 |                                                 |
| \\      /  F ield         | OpenFOAM: The Open Source CFD Toolbox           |
|  \\    /   O peration     | Version:  4.1                                   |
|   \\  /    A nd           | Web:      www.OpenFOAM.org                      |
|    \\/     M anipulation  |                                                 |
\*---------------------------------------------------------------------------*/
FoamFile
{
    version     2.0;
    format      ascii;
    class       volScalarField;
    object      T;
}
// * * * * * * * * * * * * * * * * * * * * * * * * * * * * * * * * * * * * * //

dimensions      [0 0 0 1 0 0 0];

internalField   uniform 300;

boundaryField
{
    top
    {
        type            zeroGradient;
    }

    inlet
    {
        type            inletOutlet;
        inletValue      uniform 300;
        value           uniform 300;
    }

    outlet
    {
        type            inletOutlet;
        inletValue      uniform 300;
        value           uniform 300;
    }

    bottom
    {
        type            zeroGradient;
    }

    frontAndBack
    {
        type            zeroGradient;
    }

    InletN
    {
        type            inletOutlet;
        inletValue      uniform 2000;
        value           uniform 2000;
    }

      walls
    {
        type            zeroGradient;
    }

}

// ************************************************************************* //
